/*--------------------------------*- C++ -*----------------------------------*\
| =========                 |                                                 |
| \\      /  F ield         | OpenFOAM: The Open Source CFD Toolbox           |
|  \\    /   O peration     | Version:  2.1.0                                 |
|   \\  /    A nd           | Web:      www.OpenFOAM.org                      |
|    \\/     M anipulation  |                                                 |
\*---------------------------------------------------------------------------*/
FoamFile
{
    version     2.0;
    format      ascii;
    class       volScalarField;
    object      p_rgh;
}
// * * * * * * * * * * * * * * * * * * * * * * * * * * * * * * * * * * * * * //

#include        "include/initialConditions"

dimensions      [1 -1 -2 0 0 0 0];

internalField   uniform $pressure;

boundaryField
{
    inlet
    {
        type            fixedFluxPressure;
        value           uniform 0;
    }

    outlet
       {
        type            fixedFluxPressure;
        value           uniform 0;
    }

    atmosphere
    {
       type            totalPressure;
        p0              uniform 0;
    }
   
    "cylinder.*"
    {
        type            fixedFluxPressure;
        value           uniform 0;
    }

 
 lateral
       {
		       type            prghTotalHydrostaticPressure;
	ph_rgh          p_rgh;
        value           $internalField;
		//           type            fixedFluxPressure;
       //value           uniform 0;
      /* type            groovyBC;
    
        value          uniform 0;
        
        valueExpression "(pos().z > 1.5) ? 0 : 0";
        fractionExpression "(phi > 0) ? 0 : 1";
    */
    }
    front
     {
        type            symmetryPlane;
        
    }
    back
     {
        type            symmetryPlane;
        
    }


    
}

// ************************************************************************* //
