/*--------------------------------*- C++ -*----------------------------------*\
| =========                 |                                                 |
| \\      /  F ield         | OpenFOAM: The Open Source CFD Toolbox           |
|  \\    /   O peration     | Version:  v2106                                 |
|   \\  /    A nd           | Website:  www.openfoam.com                      |
|    \\/     M anipulation  |                                                 |
\*---------------------------------------------------------------------------*/
FoamFile
{
    version     2.0;
    format      ascii;
    arch        "LSB;label=32;scalar=64";
    class       extendedFeatureEdgeMesh;
    location    "constant/extendedFeatureEdgeMesh";
    object      gate.extendedFeatureEdgeMesh;
}
// * * * * * * * * * * * * * * * * * * * * * * * * * * * * * * * * * * * * * //

// points
8((0 0 0.03) (0 0 0.6) (0 0.3 0.6) (0 0.3 0.03) (0.00999999 0.3 0.6) (0.00999999 0.3 0.03) (0.00999999 0 0.6) (0.00999999 0 0.03))
// edges

18
(
(0 1)
(1 2)
(2 3)
(3 0)
(2 4)
(4 5)
(5 3)
(4 6)
(6 7)
(7 5)
(6 1)
(0 7)
(2 0)
(4 3)
(6 5)
(1 7)
(7 3)
(1 4)
)

// concaveStart mixedStart nonFeatureStart
0 0 8
// internalStart flatStart openStart multipleStart
12 12 18 18
// normals

12
(
(-1 0 0)
(0 -1 0)
(0 0 1)
(-1 0 0)
(0 1 0)
(0 0 -1)
(0 1 0)
(1 0 -0)
(0 0 -1)
(0 0 1)
(1 0 0)
(0 -1 0)
)

// normal volume types

12
(
0
0
0
0
0
0
0
0
0
0
0
0
)

// normalDirections

18
(
2(1 -1)
2(1 -1)
2(1 -1)
2(1 -1)
2(1 -1)
2(1 -1)
2(1 -1)
2(1 -1)
2(1 -1)
2(1 -1)
2(1 -1)
2(1 -1)
2(1 -1)
2(1 -1)
2(1 -1)
2(1 -1)
2(1 -1)
2(1 -1)
)

// edgeNormals

18
(
2(0 1)
2(0 2)
2(3 4)
2(3 5)
2(4 2)
2(6 7)
2(6 8)
2(7 9)
2(10 11)
2(10 8)
2(11 9)
2(1 5)
2(0 3)
2(4 6)
2(7 10)
2(11 1)
2(8 5)
2(2 9)
)

// featurePointNormals

8
(
3(0 1 5)
3(0 1 2)
3(0 2 4)
3(3 4 5)
3(4 2 7)
3(6 7 8)
3(7 9 11)
3(10 11 8)
)

// featurePointEdges

8
(
4(12 3 11 0)
5(0 15 10 17 1)
4(12 2 4 1)
5(2 13 6 16 3)
5(13 5 7 17 4)
4(5 14 9 6)
4(14 8 10 7)
5(8 15 11 16 9)
)

// regionEdges
0()


// ************************************************************************* //
