/*--------------------------------*- C++ -*----------------------------------*\
| =========                 |                                                 |
| \\      /  F ield         | OpenFOAM: The Open Source CFD Toolbox           |
|  \\    /   O peration     | Version:  v2106                                 |
|   \\  /    A nd           | Website:  www.openfoam.com                      |
|    \\/     M anipulation  |                                                 |
\*---------------------------------------------------------------------------*/
FoamFile
{
    version     2.0;
    format      ascii;
    arch        "LSB;label=32;scalar=64";
    class       extendedFeatureEdgeMesh;
    location    "constant/extendedFeatureEdgeMesh";
    object      geo.extendedFeatureEdgeMesh;
}
// * * * * * * * * * * * * * * * * * * * * * * * * * * * * * * * * * * * * * //

// points

28
(
(0 0 0)
(1.565 0 0)
(1.565 0 0.3)
(0 0 0.3)
(-0.4 0 0.3)
(-0.4 0 0)
(0 0.3 0)
(1.565 0.3 0)
(0 0.3 0.3)
(1.565 0.3 0.3)
(-0.4 0.3 0)
(-0.4 0.3 0.3)
(-0.4 0.3 0.6)
(0 0.3 0.6)
(3.2 0 0)
(3.2 0 0.3)
(-0.4 0 0.6)
(3.2 0.3 0)
(3.2 0.3 0.3)
(0 0 0.6)
(3.7 0 0)
(3.7 0 0.3)
(3.2 0 -0.2)
(3.7 0 -0.2)
(3.2 0.3 -0.2)
(3.7 0.3 -0.2)
(3.7 0.3 0.3)
(3.7 0.3 0)
)

// edges

67
(
(0 1)
(5 0)
(6 7)
(10 6)
(11 12)
(13 8)
(1 14)
(4 16)
(7 17)
(19 3)
(22 23)
(14 22)
(24 25)
(22 24)
(24 17)
(17 14)
(2 0)
(1 2)
(3 0)
(4 0)
(3 4)
(7 0)
(0 6)
(7 1)
(7 8)
(9 7)
(6 8)
(5 6)
(12 8)
(8 11)
(10 8)
(15 1)
(14 15)
(16 11)
(17 1)
(17 9)
(18 17)
(13 3)
(19 4)
(21 14)
(14 20)
(23 14)
(25 22)
(27 18)
(27 17)
(27 24)
(24 14)
(2 3)
(4 5)
(8 9)
(5 10)
(12 13)
(10 11)
(15 2)
(11 4)
(16 12)
(9 18)
(3 8)
(13 19)
(19 16)
(20 21)
(21 15)
(23 20)
(25 23)
(18 26)
(26 27)
(27 25)
)

// concaveStart mixedStart nonFeatureStart
0 0 28
// internalStart flatStart openStart multipleStart
15 16 47 67
// normals

38
(
(0 -1 0)
(0 -1 0)
(-0 1 0)
(-0 0 -1)
(0 1 -0)
(0 1 0)
(0 -1 0)
(-1 0 0)
(-1 0 0)
(-0 1 0)
(1 0 0)
(1 0 0)
(0 -1 0)
(0 -1 0)
(0 -1 0)
(0 -1 0)
(0 0 -1)
(-0 1 0)
(0 1 0)
(0 -1 0)
(0 0 -1)
(0 -0 -1)
(0 0 -1)
(0 1 0)
(0 1 0)
(0 1 0)
(0 -1 0)
(0 0 -1)
(0 0 -1)
(0 1 0)
(0 -1 0)
(0 -1 0)
(-1 0 0)
(0 0 -1)
(0 1 0)
(-1 0 0)
(0 -1 0)
(0 1 0)
)

// normal volume types

38
(
0
0
0
0
0
0
0
0
0
0
0
0
0
0
0
0
0
0
0
0
0
0
0
0
0
0
0
0
0
0
0
0
0
0
0
0
0
0
)

// normalDirections

67
(
2(1 -1)
2(1 -1)
2(1 -1)
2(1 -1)
2(1 -1)
2(1 -1)
2(1 -1)
2(1 -1)
2(1 -1)
2(1 -1)
2(1 -1)
2(1 -1)
2(1 -1)
2(1 -1)
2(1 -1)
2(1 -1)
2(1 -1)
2(1 -1)
2(1 -1)
2(1 -1)
2(1 -1)
2(1 -1)
2(1 -1)
2(1 -1)
2(1 -1)
2(1 -1)
2(1 -1)
2(1 -1)
2(1 -1)
2(1 -1)
2(1 -1)
2(1 -1)
2(1 -1)
2(1 -1)
2(1 -1)
2(1 -1)
2(1 -1)
2(1 -1)
2(1 -1)
2(1 -1)
2(1 -1)
2(1 -1)
2(1 -1)
2(1 -1)
2(1 -1)
2(1 -1)
2(1 -1)
1(1)
1(1)
1(1)
1(1)
1(1)
1(1)
1(1)
1(1)
1(1)
1(1)
1(1)
1(1)
1(1)
1(1)
1(1)
1(1)
1(1)
1(1)
1(1)
1(1)
)

// edgeNormals

67
(
2(19 20)
2(1 21)
2(22 23)
2(3 24)
2(25 8)
2(4 10)
2(26 27)
2(7 12)
2(28 29)
2(11 30)
2(31 16)
2(31 32)
2(33 18)
2(33 32)
2(34 35)
2(27 35)
2(19 0)
2(19 6)
2(0 36)
2(36 1)
2(36 30)
2(22 20)
2(22 21)
2(20 28)
2(2 23)
2(2 29)
2(23 24)
2(21 3)
2(25 4)
2(25 5)
2(24 5)
2(26 6)
2(26 14)
2(7 8)
2(28 27)
2(9 29)
2(9 37)
2(10 11)
2(30 12)
2(13 14)
2(13 15)
2(31 15)
2(33 16)
2(17 37)
2(37 34)
2(34 18)
2(35 32)
1(0)
1(1)
1(2)
1(3)
1(4)
1(5)
1(6)
1(7)
1(8)
1(9)
1(10)
1(11)
1(12)
1(13)
1(14)
1(15)
1(16)
1(17)
1(17)
1(18)
)

// featurePointNormals

28
(
2(19 20)
2(19 20)
1(19)
2(11 30)
2(7 12)
2(1 21)
2(22 23)
2(22 23)
2(4 10)
1(2)
2(3 24)
2(25 8)
2(25 8)
2(4 10)
3(26 27 32)
1(26)
2(7 12)
3(28 29 35)
1(9)
2(11 30)
1(13)
1(13)
3(31 16 32)
2(31 16)
3(33 18 32)
2(33 18)
1(17)
1(17)
)

// featurePointEdges

28
(
7(16 18 19 1 22 21 0)
6(0 23 34 6 31 17)
4(16 17 47 53)
6(18 20 37 9 47 57)
6(19 20 7 38 48 54)
4(1 27 48 50)
5(2 26 3 27 22)
6(21 23 8 25 24 2)
8(24 26 28 29 5 30 49 57)
4(25 35 49 56)
4(3 30 50 52)
5(29 4 33 52 54)
4(28 4 51 55)
4(5 37 51 58)
8(6 15 46 11 41 40 39 32)
4(31 32 53 61)
4(33 7 55 59)
7(34 15 14 44 36 35 8)
4(36 43 56 64)
4(9 38 58 59)
3(40 60 62)
3(39 60 61)
4(10 42 13 11)
4(41 10 62 63)
5(12 45 14 46 13)
4(42 12 63 66)
2(64 65)
5(43 44 45 65 66)
)

// regionEdges

20
(
47
48
49
50
51
52
53
54
55
56
57
58
59
60
61
62
63
64
65
66
)



// ************************************************************************* //
