/*--------------------------------*- C++ -*----------------------------------*\
| =========                 |                                                 |
| \\      /  F ield         | OpenFOAM: The Open Source CFD Toolbox           |
|  \\    /   O peration     | Version:  v2106                                 |
|   \\  /    A nd           | Website:  www.openfoam.com                      |
|    \\/     M anipulation  |                                                 |
\*---------------------------------------------------------------------------*/
FoamFile
{
    version     2.0;
    format      ascii;
    arch        "LSB;label=32;scalar=64";
    class       extendedFeatureEdgeMesh;
    location    "constant/extendedFeatureEdgeMesh";
    object      outlet.extendedFeatureEdgeMesh;
}
// * * * * * * * * * * * * * * * * * * * * * * * * * * * * * * * * * * * * * //

// points
6((3.7 0.3 0) (3.7 0 0) (3.7 0 -0.2) (3.7 0.3 -0.2) (3.7 0.3 0.3) (3.7 0 0.3))
// edges
9((2 0) (0 1) (5 0) (1 2) (2 3) (3 0) (0 4) (4 5) (5 1))
// concaveStart mixedStart nonFeatureStart
0 0 6
// internalStart flatStart openStart multipleStart
0 0 3 9
// normals
4{(1 0 0)}
// normal volume types

4
(
0
0
0
0
)

// normalDirections

9
(
2(1 -1)
2(1 -1)
2(1 -1)
1(1)
1(1)
1(1)
1(1)
1(1)
1(1)
)

// edgeNormals

9
(
2(0 1)
2(0 3)
2(2 3)
1(0)
1(1)
1(1)
1(2)
1(2)
1(3)
)

// featurePointNormals

6
(
1(0)
1(0)
1(0)
1(1)
1(2)
1(2)
)

// featurePointEdges

6
(
5(0 1 2 5 6)
3(1 3 8)
3(0 3 4)
2(4 5)
2(6 7)
3(2 7 8)
)

// regionEdges
6(3 4 5 6 7 8)


// ************************************************************************* //
