/*--------------------------------*- C++ -*----------------------------------*\
| =========                 |                                                 |
| \\      /  F ield         | OpenFOAM: The Open Source CFD Toolbox           |
|  \\    /   O peration     | Version:  v2106                                 |
|   \\  /    A nd           | Website:  www.openfoam.com                      |
|    \\/     M anipulation  |                                                 |
\*---------------------------------------------------------------------------*/
FoamFile
{
    version     2.0;
    format      ascii;
    arch        "LSB;label=32;scalar=64";
    class       extendedFeatureEdgeMesh;
    location    "constant/extendedFeatureEdgeMesh";
    object      surface.extendedFeatureEdgeMesh;
}
// * * * * * * * * * * * * * * * * * * * * * * * * * * * * * * * * * * * * * //

// points

12
(
(0 0 0.3)
(1.565 0 0.3)
(1.565 0.3 0.3)
(0 0.3 0.3)
(7 0 0.3)
(7 0.3 0.3)
(7.5 0 0.3)
(7.5 0.3 0.3)
(0 0 0.6)
(0 0.3 0.6)
(-0.4 0.3 0.6)
(-0.4 0 0.6)
)

// edges

18
(
(2 0)
(1 2)
(5 1)
(4 5)
(7 4)
(10 8)
(0 1)
(2 3)
(3 0)
(1 4)
(5 2)
(4 6)
(6 7)
(7 5)
(8 9)
(9 10)
(10 11)
(11 8)
)

// concaveStart mixedStart nonFeatureStart
0 0 12
// internalStart flatStart openStart multipleStart
0 0 6 18
// normals
8{(0 0 1)}
// normal volume types

8
(
0
0
0
0
0
0
0
0
)

// normalDirections

18
(
2(1 -1)
2(1 -1)
2(1 -1)
2(1 -1)
2(1 -1)
2(1 -1)
1(1)
1(1)
1(1)
1(1)
1(1)
1(1)
1(1)
1(1)
1(1)
1(1)
1(1)
1(1)
)

// edgeNormals

18
(
2(0 1)
2(0 3)
2(2 3)
2(2 5)
2(4 5)
2(6 7)
1(0)
1(1)
1(1)
1(2)
1(3)
1(4)
1(4)
1(5)
1(6)
1(6)
1(7)
1(7)
)

// featurePointNormals

12
(
1(0)
1(0)
1(0)
1(1)
1(2)
1(2)
1(4)
1(4)
1(6)
1(6)
1(6)
1(7)
)

// featurePointEdges

12
(
3(0 6 8)
4(1 2 6 9)
4(0 1 7 10)
2(7 8)
4(3 4 9 11)
4(2 3 10 13)
2(11 12)
3(4 12 13)
3(5 14 17)
2(14 15)
3(5 15 16)
2(16 17)
)

// regionEdges

12
(
6
7
8
9
10
11
12
13
14
15
16
17
)



// ************************************************************************* //
